32
Coordinates from ORCA-job rw_cut_5_p1_opt E -648.065376858888
  C           0.48125745047013      0.74143626159255     -1.43200909605598
  H           1.37609122459080      1.25999918838018     -1.78243146573376
  H           0.33133116942172     -0.13743142565360     -2.07029457791514
  C           0.60421026871965      0.37535106246237      0.00513577918531
  C           1.64861162550014      0.71714247953876      0.84046517324878
  N           1.36803642370842      0.25965749642419      2.10035763512288
  H           1.96498796640957      0.37032216059443      2.90274619579157
  C           0.18103627065217     -0.43657735608218      2.09291150218309
  C          -0.33209439245403     -0.36452241333304      0.79693931198663
  C          -1.57521388277975     -0.97583089563951      0.53273914767569
  H          -2.01053991207311     -0.92808177789628     -0.46048576942846
  C          -2.25559101529307     -1.62941324957653      1.56715968750145
  H          -3.21827049172185     -2.08578783628229      1.36452417375933
  C          -1.71879981523027     -1.67867766387030      2.85103015762771
  H          -2.27419005021801     -2.15643847964732      3.65273865839004
  C          -0.48842954107477     -1.08193895515905      3.13992645127989
  H          -0.08059968735794     -1.10246763496028      4.14533424855159
  H           2.53786926749546      1.29501970558716      0.63433942570809
  H          -0.37468844610255      1.40482494118335     -1.59939270513882
  C           1.18535684068408     -6.56080103425678      1.25930656314482
  H           1.37576566803152     -6.45764661087961      2.33240820080868
  H           0.19017193635946     -6.99203722805628      1.09626487267504
  N           1.34149865398534     -5.27502891131758      0.58409204964170
  H           1.83161440580879     -5.27355137812778     -0.29542685131384
  C           0.69554139850365     -4.14688698399736      0.91489815515327
  N           0.92649486388389     -3.03832673012851      0.21113640929457
  H           0.42120527040863     -2.17660213164877      0.39683594410368
  N          -0.16904799145994     -4.09205892701927      1.92820315514364
  H          -0.48411568102247     -4.93614148470844      2.37551849938910
  H          -0.60024124553771     -3.21257537979747      2.20511074541408
  H           1.92746381120749     -7.24975063681016      0.85591130680102
  H           1.70511763648454     -2.98863817091449     -0.42380298399571
