35
Coordinates from ORCA-job rw_cut_5_p1_ch3_opt E -687.369221281912
  C           1.01402257407650      0.00840984818559     -1.32016928940785
  H           1.82593627003759      0.61413889361010     -1.72839267743484
  H           1.17860168484684     -1.02833450761814     -1.63792932653553
  C           0.94467139763134      0.13209851172487      0.15876439090729
  C           1.72945737882798      0.95146182759924      0.94623255133056
  N           1.35547199000792      0.78076140940407      2.25153875824842
  H           1.73861695943481      1.28765481890042      3.03170365200306
  C           0.33398996644413     -0.13534668262506      2.33831586880097
  C           0.05232180438581     -0.55943641698665      1.04021721309613
  C          -0.97321002702674     -1.51111250868660      0.85255124385604
  H          -1.22503249354958     -1.85671234169390     -0.14581138326565
  C          -1.68058442970235     -2.01044154603364      1.95916755977151
  C          -2.77082168111472     -3.02500815138516      1.77372109773926
  C          -1.36447703512604     -1.55795528517130      3.24428580730757
  H          -1.93675939288915     -1.92078720517838      4.09450553165468
  C          -0.35453072341016     -0.61402565693275      3.45812343235183
  H          -0.12796736604206     -0.25796165172350      4.45800534470829
  H           2.50727262940907      1.64662587721607      0.66581290090674
  H           0.08267232640747      0.33974440348399     -1.79327255634948
  H          -2.82315237531478     -3.37313270989605      0.74039026575144
  H          -3.74625705231859     -2.59954835294537      2.03361384768379
  H          -2.62169677841809     -3.89715401334977      2.41965198185485
  C           2.59685687608130     -5.92071232982187      3.46141142283618
  H           2.57699591637538     -5.51470868209592      4.47793304534434
  H           1.74454112113684     -6.59453860084554      3.31153020700546
  N           2.62039866193082     -4.84164386338366      2.47727053481991
  H           3.24850210896931     -4.94358599474708      1.69704889289457
  C           1.72187532089219     -3.84860894899524      2.40013020142989
  N           1.85669380971547     -2.92593614532418      1.44723490111359
  H           1.16231711990724     -2.19549258534853      1.31287724911722
  N           0.69743996988683     -3.74749813587250      3.24725520449242
  H           0.48999565435350     -4.49341347297883      3.88916352515956
  H           0.07633194511073     -2.93902940704840      3.22415777639933
  H           3.51413345214719     -6.49965429899405      3.35414835872243
  H           2.70806241689599     -2.85915609444216      0.91585246568590
